<?xml version="1.0" encoding="UTF-8"?>

<!-- generated on 2026-03-10 10:33:16 by Eclipse SUMO netconvert Version 1.18.0
<configuration xmlns:xsi="http://www.w3.org/2001/XMLSchema-instance" xsi:noNamespaceSchemaLocation="http://sumo.dlr.de/xsd/netconvertConfiguration.xsd">

    <input>
        <node-files value="intersection.nod.xml"/>
        <edge-files value="intersection.edg.xml"/>
    </input>

    <output>
        <output-file value="intersection.net.xml"/>
    </output>

    <tls_building>
        <tls.guess value="true"/>
    </tls_building>

</configuration>
-->

<net version="1.16" junctionCornerDetail="5" limitTurnSpeed="5.50" xmlns:xsi="http://www.w3.org/2001/XMLSchema-instance" xsi:noNamespaceSchemaLocation="http://sumo.dlr.de/xsd/net_file.xsd">

    <location netOffset="300.00,300.00" convBoundary="0.00,0.00,600.00,600.00" origBoundary="-300.00,-300.00,300.00,300.00" projParameter="!"/>

    <edge id=":c_0" function="internal">
        <lane id=":c_0_0" index="0" speed="6.51" length="9.03" shape="295.20,310.40 294.85,307.95 293.80,306.20 292.05,305.15 289.60,304.80"/>
    </edge>
    <edge id=":c_1" function="internal">
        <lane id=":c_1_0" index="0" speed="13.89" length="20.80" shape="295.20,310.40 295.20,289.60"/>
        <lane id=":c_1_1" index="1" speed="13.89" length="20.80" shape="298.40,310.40 298.40,289.60"/>
    </edge>
    <edge id=":c_3" function="internal">
        <lane id=":c_3_0" index="0" speed="9.26" length="5.01" shape="298.40,310.40 299.11,305.44"/>
    </edge>
    <edge id=":c_4" function="internal">
        <lane id=":c_4_0" index="0" speed="3.65" length="1.44" shape="298.40,310.40 299.20,309.20"/>
    </edge>
    <edge id=":c_20" function="internal">
        <lane id=":c_20_0" index="0" speed="9.26" length="14.34" shape="299.11,305.44 299.15,305.15 301.40,301.40 305.15,299.15 310.40,298.40"/>
    </edge>
    <edge id=":c_21" function="internal">
        <lane id=":c_21_0" index="0" speed="3.65" length="3.23" shape="299.20,309.20 300.00,308.80 300.80,309.20 301.60,310.40"/>
    </edge>
    <edge id=":c_5" function="internal">
        <lane id=":c_5_0" index="0" speed="6.51" length="9.03" shape="310.40,304.80 307.95,305.15 306.20,306.20 305.15,307.95 304.80,310.40"/>
    </edge>
    <edge id=":c_6" function="internal">
        <lane id=":c_6_0" index="0" speed="13.89" length="20.80" shape="310.40,304.80 289.60,304.80"/>
        <lane id=":c_6_1" index="1" speed="13.89" length="20.80" shape="310.40,301.60 289.60,301.60"/>
    </edge>
    <edge id=":c_8" function="internal">
        <lane id=":c_8_0" index="0" speed="9.26" length="5.01" shape="310.40,301.60 305.44,300.89"/>
    </edge>
    <edge id=":c_9" function="internal">
        <lane id=":c_9_0" index="0" speed="3.65" length="1.44" shape="310.40,301.60 309.20,300.80"/>
    </edge>
    <edge id=":c_22" function="internal">
        <lane id=":c_22_0" index="0" speed="9.26" length="14.34" shape="305.44,300.89 305.15,300.85 301.40,298.60 299.15,294.85 298.40,289.60"/>
    </edge>
    <edge id=":c_23" function="internal">
        <lane id=":c_23_0" index="0" speed="3.65" length="3.23" shape="309.20,300.80 308.80,300.00 309.20,299.20 310.40,298.40"/>
    </edge>
    <edge id=":c_10" function="internal">
        <lane id=":c_10_0" index="0" speed="6.51" length="9.03" shape="304.80,289.60 305.15,292.05 306.20,293.80 307.95,294.85 310.40,295.20"/>
    </edge>
    <edge id=":c_11" function="internal">
        <lane id=":c_11_0" index="0" speed="13.89" length="20.80" shape="304.80,289.60 304.80,310.40"/>
        <lane id=":c_11_1" index="1" speed="13.89" length="20.80" shape="301.60,289.60 301.60,310.40"/>
    </edge>
    <edge id=":c_13" function="internal">
        <lane id=":c_13_0" index="0" speed="9.26" length="5.01" shape="301.60,289.60 300.89,294.56"/>
    </edge>
    <edge id=":c_14" function="internal">
        <lane id=":c_14_0" index="0" speed="3.65" length="1.44" shape="301.60,289.60 300.80,290.80"/>
    </edge>
    <edge id=":c_24" function="internal">
        <lane id=":c_24_0" index="0" speed="9.26" length="14.34" shape="300.89,294.56 300.85,294.85 298.60,298.60 294.85,300.85 289.60,301.60"/>
    </edge>
    <edge id=":c_25" function="internal">
        <lane id=":c_25_0" index="0" speed="3.65" length="3.23" shape="300.80,290.80 300.00,291.20 299.20,290.80 298.40,289.60"/>
    </edge>
    <edge id=":c_15" function="internal">
        <lane id=":c_15_0" index="0" speed="6.51" length="9.03" shape="289.60,295.20 292.05,294.85 293.80,293.80 294.85,292.05 295.20,289.60"/>
    </edge>
    <edge id=":c_16" function="internal">
        <lane id=":c_16_0" index="0" speed="13.89" length="20.80" shape="289.60,295.20 310.40,295.20"/>
        <lane id=":c_16_1" index="1" speed="13.89" length="20.80" shape="289.60,298.40 310.40,298.40"/>
    </edge>
    <edge id=":c_18" function="internal">
        <lane id=":c_18_0" index="0" speed="9.26" length="5.01" shape="289.60,298.40 294.56,299.11"/>
    </edge>
    <edge id=":c_19" function="internal">
        <lane id=":c_19_0" index="0" speed="3.65" length="1.44" shape="289.60,298.40 290.80,299.20"/>
    </edge>
    <edge id=":c_26" function="internal">
        <lane id=":c_26_0" index="0" speed="9.26" length="14.34" shape="294.56,299.11 294.85,299.15 298.60,301.40 300.85,305.15 301.60,310.40"/>
    </edge>
    <edge id=":c_27" function="internal">
        <lane id=":c_27_0" index="0" speed="3.65" length="3.23" shape="290.80,299.20 291.20,300.00 290.80,300.80 289.60,301.60"/>
    </edge>
    <edge id=":e_0" function="internal">
        <lane id=":e_0_0" index="0" speed="3.65" length="4.67" shape="600.00,298.40 601.20,299.20 601.60,300.00 601.20,300.80 600.00,301.60"/>
    </edge>
    <edge id=":n_0" function="internal">
        <lane id=":n_0_0" index="0" speed="3.65" length="4.67" shape="301.60,600.00 300.80,601.20 300.00,601.60 299.20,601.20 298.40,600.00"/>
    </edge>
    <edge id=":s_0" function="internal">
        <lane id=":s_0_0" index="0" speed="3.65" length="4.67" shape="298.40,0.00 299.20,-1.20 300.00,-1.60 300.80,-1.20 301.60,0.00"/>
    </edge>
    <edge id=":w_0" function="internal">
        <lane id=":w_0_0" index="0" speed="3.65" length="4.67" shape="0.00,301.60 -1.20,300.80 -1.60,300.00 -1.20,299.20 0.00,298.40"/>
    </edge>

    <edge id="c2e" from="c" to="e" priority="-1">
        <lane id="c2e_0" index="0" speed="13.89" length="289.60" shape="310.40,295.20 600.00,295.20"/>
        <lane id="c2e_1" index="1" speed="13.89" length="289.60" shape="310.40,298.40 600.00,298.40"/>
    </edge>
    <edge id="c2n" from="c" to="n" priority="-1">
        <lane id="c2n_0" index="0" speed="13.89" length="289.60" shape="304.80,310.40 304.80,600.00"/>
        <lane id="c2n_1" index="1" speed="13.89" length="289.60" shape="301.60,310.40 301.60,600.00"/>
    </edge>
    <edge id="c2s" from="c" to="s" priority="-1">
        <lane id="c2s_0" index="0" speed="13.89" length="289.60" shape="295.20,289.60 295.20,0.00"/>
        <lane id="c2s_1" index="1" speed="13.89" length="289.60" shape="298.40,289.60 298.40,0.00"/>
    </edge>
    <edge id="c2w" from="c" to="w" priority="-1">
        <lane id="c2w_0" index="0" speed="13.89" length="289.60" shape="289.60,304.80 0.00,304.80"/>
        <lane id="c2w_1" index="1" speed="13.89" length="289.60" shape="289.60,301.60 0.00,301.60"/>
    </edge>
    <edge id="e2c" from="e" to="c" priority="-1">
        <lane id="e2c_0" index="0" speed="13.89" length="289.60" shape="600.00,304.80 310.40,304.80"/>
        <lane id="e2c_1" index="1" speed="13.89" length="289.60" shape="600.00,301.60 310.40,301.60"/>
    </edge>
    <edge id="n2c" from="n" to="c" priority="-1">
        <lane id="n2c_0" index="0" speed="13.89" length="289.60" shape="295.20,600.00 295.20,310.40"/>
        <lane id="n2c_1" index="1" speed="13.89" length="289.60" shape="298.40,600.00 298.40,310.40"/>
    </edge>
    <edge id="s2c" from="s" to="c" priority="-1">
        <lane id="s2c_0" index="0" speed="13.89" length="289.60" shape="304.80,0.00 304.80,289.60"/>
        <lane id="s2c_1" index="1" speed="13.89" length="289.60" shape="301.60,0.00 301.60,289.60"/>
    </edge>
    <edge id="w2c" from="w" to="c" priority="-1">
        <lane id="w2c_0" index="0" speed="13.89" length="289.60" shape="0.00,295.20 289.60,295.20"/>
        <lane id="w2c_1" index="1" speed="13.89" length="289.60" shape="0.00,298.40 289.60,298.40"/>
    </edge>

    <tlLogic id="c" type="static" programID="0" offset="0">
        <phase duration="42" state="GGGggrrrrrGGGggrrrrr"/>
        <phase duration="3"  state="yyyyyrrrrryyyyyrrrrr"/>
        <phase duration="42" state="rrrrrGGGggrrrrrGGGgg"/>
        <phase duration="3"  state="rrrrryyyyyrrrrryyyyy"/>
    </tlLogic>

    <junction id="c" type="traffic_light" x="300.00" y="300.00" incLanes="n2c_0 n2c_1 e2c_0 e2c_1 s2c_0 s2c_1 w2c_0 w2c_1" intLanes=":c_0_0 :c_1_0 :c_1_1 :c_20_0 :c_21_0 :c_5_0 :c_6_0 :c_6_1 :c_22_0 :c_23_0 :c_10_0 :c_11_0 :c_11_1 :c_24_0 :c_25_0 :c_15_0 :c_16_0 :c_16_1 :c_26_0 :c_27_0" shape="293.60,310.40 306.40,310.40 306.84,308.18 307.40,307.40 308.18,306.84 309.18,306.51 310.40,306.40 310.40,293.60 308.18,293.16 307.40,292.60 306.84,291.82 306.51,290.82 306.40,289.60 293.60,289.60 293.16,291.82 292.60,292.60 291.82,293.16 290.82,293.49 289.60,293.60 289.60,306.40 291.82,306.84 292.60,307.40 293.16,308.18 293.49,309.18">
        <request index="0"  response="00000000000000000000" foes="00000000000011000000" cont="0"/>
        <request index="1"  response="01000000000100000000" foes="01111110000111000000" cont="0"/>
        <request index="2"  response="01000000000100000000" foes="01111110000111000000" cont="0"/>
        <request index="3"  response="01000001100100000000" foes="01110001101111000000" cont="1"/>
        <request index="4"  response="01000001100000000000" foes="01000001100000000000" cont="1"/>
        <request index="5"  response="00000001100000000000" foes="00000001100000000000" cont="0"/>
        <request index="6"  response="00000011100000001111" foes="11000011100000001111" cont="0"/>
        <request index="7"  response="00000011100000001111" foes="11000011100000001111" cont="0"/>
        <request index="8"  response="00110011100000001110" foes="00110111100000001110" cont="1"/>
        <request index="9"  response="00110000000000001000" foes="00110000000000001000" cont="1"/>
        <request index="10" response="00000000000000000000" foes="00110000000000000000" cont="0"/>
        <request index="11" response="01000000000100000000" foes="01110000000111111000" cont="0"/>
        <request index="12" response="01000000000100000000" foes="01110000000111111000" cont="0"/>
        <request index="13" response="01000000000100000110" foes="11110000000111000110" cont="1"/>
        <request index="14" response="00000000000100000110" foes="00000000000100000110" cont="1"/>
        <request index="15" response="00000000000000000110" foes="00000000000000000110" cont="0"/>
        <request index="16" response="00000011110000001110" foes="00000011111100001110" cont="0"/>
        <request index="17" response="00000011110000001110" foes="00000011111100001110" cont="0"/>
        <request index="18" response="00000011100011001110" foes="00000011100011011110" cont="1"/>
        <request index="19" response="00000010000011000000" foes="00000010000011000000" cont="1"/>
    </junction>
    <junction id="e" type="priority" x="600.00" y="300.00" incLanes="c2e_0 c2e_1" intLanes=":e_0_0" shape="600.00,300.00 600.00,293.60 600.00,300.00">
        <request index="0" response="0" foes="0" cont="0"/>
    </junction>
    <junction id="n" type="priority" x="300.00" y="600.00" incLanes="c2n_0 c2n_1" intLanes=":n_0_0" shape="300.00,600.00 306.40,600.00 300.00,600.00">
        <request index="0" response="0" foes="0" cont="0"/>
    </junction>
    <junction id="s" type="priority" x="300.00" y="0.00" incLanes="c2s_0 c2s_1" intLanes=":s_0_0" shape="300.00,0.00 293.60,0.00 300.00,0.00">
        <request index="0" response="0" foes="0" cont="0"/>
    </junction>
    <junction id="w" type="priority" x="0.00" y="300.00" incLanes="c2w_0 c2w_1" intLanes=":w_0_0" shape="0.00,300.00 0.00,306.40 0.00,300.00">
        <request index="0" response="0" foes="0" cont="0"/>
    </junction>

    <junction id=":c_20_0" type="internal" x="299.11" y="305.44" incLanes=":c_3_0 s2c_0 s2c_1" intLanes=":c_6_0 :c_6_1 :c_8_0 :c_9_0 :c_10_0 :c_11_0 :c_11_1 :c_16_0 :c_16_1 :c_18_0"/>
    <junction id=":c_21_0" type="internal" x="299.20" y="309.20" incLanes=":c_4_0 e2c_0 s2c_0 s2c_1 w2c_1" intLanes=":c_5_0 :c_11_0 :c_11_1 :c_18_0"/>
    <junction id=":c_22_0" type="internal" x="305.44" y="300.89" incLanes=":c_8_0 w2c_0 w2c_1" intLanes=":c_1_0 :c_1_1 :c_3_0 :c_11_0 :c_11_1 :c_13_0 :c_14_0 :c_15_0 :c_16_0 :c_16_1"/>
    <junction id=":c_23_0" type="internal" x="309.20" y="300.80" incLanes=":c_9_0 n2c_1 s2c_0 w2c_0 w2c_1" intLanes=":c_3_0 :c_10_0 :c_16_0 :c_16_1"/>
    <junction id=":c_24_0" type="internal" x="300.89" y="294.56" incLanes=":c_13_0 n2c_0 n2c_1" intLanes=":c_0_0 :c_1_0 :c_1_1 :c_6_0 :c_6_1 :c_8_0 :c_16_0 :c_16_1 :c_18_0 :c_19_0"/>
    <junction id=":c_25_0" type="internal" x="300.80" y="290.80" incLanes=":c_14_0 e2c_1 n2c_0 n2c_1 w2c_0" intLanes=":c_1_0 :c_1_1 :c_8_0 :c_15_0"/>
    <junction id=":c_26_0" type="internal" x="294.56" y="299.11" incLanes=":c_18_0 e2c_0 e2c_1" intLanes=":c_1_0 :c_1_1 :c_3_0 :c_4_0 :c_5_0 :c_6_0 :c_6_1 :c_11_0 :c_11_1 :c_13_0"/>
    <junction id=":c_27_0" type="internal" x="290.80" y="299.20" incLanes=":c_19_0 e2c_0 e2c_1 n2c_0 s2c_1" intLanes=":c_0_0 :c_6_0 :c_6_1 :c_13_0"/>

    <connection from="c2e" to="e2c" fromLane="1" toLane="1" via=":e_0_0" dir="t" state="M"/>
    <connection from="c2n" to="n2c" fromLane="1" toLane="1" via=":n_0_0" dir="t" state="M"/>
    <connection from="c2s" to="s2c" fromLane="1" toLane="1" via=":s_0_0" dir="t" state="M"/>
    <connection from="c2w" to="w2c" fromLane="1" toLane="1" via=":w_0_0" dir="t" state="M"/>
    <connection from="e2c" to="c2n" fromLane="0" toLane="0" via=":c_5_0" tl="c" linkIndex="5" dir="r" state="o"/>
    <connection from="e2c" to="c2w" fromLane="0" toLane="0" via=":c_6_0" tl="c" linkIndex="6" dir="s" state="o"/>
    <connection from="e2c" to="c2w" fromLane="1" toLane="1" via=":c_6_1" tl="c" linkIndex="7" dir="s" state="o"/>
    <connection from="e2c" to="c2s" fromLane="1" toLane="1" via=":c_8_0" tl="c" linkIndex="8" dir="l" state="o"/>
    <connection from="e2c" to="c2e" fromLane="1" toLane="1" via=":c_9_0" tl="c" linkIndex="9" dir="t" state="o"/>
    <connection from="n2c" to="c2w" fromLane="0" toLane="0" via=":c_0_0" tl="c" linkIndex="0" dir="r" state="O"/>
    <connection from="n2c" to="c2s" fromLane="0" toLane="0" via=":c_1_0" tl="c" linkIndex="1" dir="s" state="O"/>
    <connection from="n2c" to="c2s" fromLane="1" toLane="1" via=":c_1_1" tl="c" linkIndex="2" dir="s" state="O"/>
    <connection from="n2c" to="c2e" fromLane="1" toLane="1" via=":c_3_0" tl="c" linkIndex="3" dir="l" state="o"/>
    <connection from="n2c" to="c2n" fromLane="1" toLane="1" via=":c_4_0" tl="c" linkIndex="4" dir="t" state="o"/>
    <connection from="s2c" to="c2e" fromLane="0" toLane="0" via=":c_10_0" tl="c" linkIndex="10" dir="r" state="O"/>
    <connection from="s2c" to="c2n" fromLane="0" toLane="0" via=":c_11_0" tl="c" linkIndex="11" dir="s" state="O"/>
    <connection from="s2c" to="c2n" fromLane="1" toLane="1" via=":c_11_1" tl="c" linkIndex="12" dir="s" state="O"/>
    <connection from="s2c" to="c2w" fromLane="1" toLane="1" via=":c_13_0" tl="c" linkIndex="13" dir="l" state="o"/>
    <connection from="s2c" to="c2s" fromLane="1" toLane="1" via=":c_14_0" tl="c" linkIndex="14" dir="t" state="o"/>
    <connection from="w2c" to="c2s" fromLane="0" toLane="0" via=":c_15_0" tl="c" linkIndex="15" dir="r" state="o"/>
    <connection from="w2c" to="c2e" fromLane="0" toLane="0" via=":c_16_0" tl="c" linkIndex="16" dir="s" state="o"/>
    <connection from="w2c" to="c2e" fromLane="1" toLane="1" via=":c_16_1" tl="c" linkIndex="17" dir="s" state="o"/>
    <connection from="w2c" to="c2n" fromLane="1" toLane="1" via=":c_18_0" tl="c" linkIndex="18" dir="l" state="o"/>
    <connection from="w2c" to="c2w" fromLane="1" toLane="1" via=":c_19_0" tl="c" linkIndex="19" dir="t" state="o"/>

    <connection from=":c_0" to="c2w" fromLane="0" toLane="0" dir="r" state="M"/>
    <connection from=":c_1" to="c2s" fromLane="0" toLane="0" dir="s" state="M"/>
    <connection from=":c_1" to="c2s" fromLane="1" toLane="1" dir="s" state="M"/>
    <connection from=":c_3" to="c2e" fromLane="0" toLane="1" via=":c_20_0" dir="l" state="m"/>
    <connection from=":c_20" to="c2e" fromLane="0" toLane="1" dir="l" state="M"/>
    <connection from=":c_4" to="c2n" fromLane="0" toLane="1" via=":c_21_0" dir="t" state="m"/>
    <connection from=":c_21" to="c2n" fromLane="0" toLane="1" dir="t" state="M"/>
    <connection from=":c_5" to="c2n" fromLane="0" toLane="0" dir="r" state="M"/>
    <connection from=":c_6" to="c2w" fromLane="0" toLane="0" dir="s" state="M"/>
    <connection from=":c_6" to="c2w" fromLane="1" toLane="1" dir="s" state="M"/>
    <connection from=":c_8" to="c2s" fromLane="0" toLane="1" via=":c_22_0" dir="l" state="m"/>
    <connection from=":c_22" to="c2s" fromLane="0" toLane="1" dir="l" state="M"/>
    <connection from=":c_9" to="c2e" fromLane="0" toLane="1" via=":c_23_0" dir="t" state="m"/>
    <connection from=":c_23" to="c2e" fromLane="0" toLane="1" dir="t" state="M"/>
    <connection from=":c_10" to="c2e" fromLane="0" toLane="0" dir="r" state="M"/>
    <connection from=":c_11" to="c2n" fromLane="0" toLane="0" dir="s" state="M"/>
    <connection from=":c_11" to="c2n" fromLane="1" toLane="1" dir="s" state="M"/>
    <connection from=":c_13" to="c2w" fromLane="0" toLane="1" via=":c_24_0" dir="l" state="m"/>
    <connection from=":c_24" to="c2w" fromLane="0" toLane="1" dir="l" state="M"/>
    <connection from=":c_14" to="c2s" fromLane="0" toLane="1" via=":c_25_0" dir="t" state="m"/>
    <connection from=":c_25" to="c2s" fromLane="0" toLane="1" dir="t" state="M"/>
    <connection from=":c_15" to="c2s" fromLane="0" toLane="0" dir="r" state="M"/>
    <connection from=":c_16" to="c2e" fromLane="0" toLane="0" dir="s" state="M"/>
    <connection from=":c_16" to="c2e" fromLane="1" toLane="1" dir="s" state="M"/>
    <connection from=":c_18" to="c2n" fromLane="0" toLane="1" via=":c_26_0" dir="l" state="m"/>
    <connection from=":c_26" to="c2n" fromLane="0" toLane="1" dir="l" state="M"/>
    <connection from=":c_19" to="c2w" fromLane="0" toLane="1" via=":c_27_0" dir="t" state="m"/>
    <connection from=":c_27" to="c2w" fromLane="0" toLane="1" dir="t" state="M"/>
    <connection from=":e_0" to="e2c" fromLane="0" toLane="1" dir="t" state="M"/>
    <connection from=":n_0" to="n2c" fromLane="0" toLane="1" dir="t" state="M"/>
    <connection from=":s_0" to="s2c" fromLane="0" toLane="1" dir="t" state="M"/>
    <connection from=":w_0" to="w2c" fromLane="0" toLane="1" dir="t" state="M"/>

</net>
